60

C          12.686       29.115       18.875
C          13.063       28.427       17.724
C          11.926       28.282       16.907
C          10.824       30.641       19.189
C          11.689       31.573       19.751
C          13.045       31.290       19.888
C          13.566       30.065       19.453
C          14.330       28.685       17.124
C          15.193       29.622       17.723
C          14.832       30.310       18.856
C          12.046       28.365       15.438
C          13.301       28.607       14.858
C           9.850       31.348       18.437
C           9.960       29.701       15.312
C          11.046       29.088       14.683
C          11.240       32.863       19.359
C          10.106       32.683       18.549
C          15.098       31.668       18.940
C          14.010       32.297       19.583
C           9.572       30.935       14.949
C           9.174       31.661       16.120
C          13.112       29.446       13.769
C          11.702       29.755       13.682
C          13.588       33.586       19.182
C          12.233       33.893       19.078
C           9.417       33.023       16.228
C           9.884       33.553       17.436
C          11.280       30.999       13.288
C          10.217       31.600       13.903
C          15.196       30.573       14.298
C          14.065       30.439       13.480
C          16.160       31.645       16.761
C          15.779       32.338       17.876
C          12.047       34.739       17.941
C          10.873       34.573       17.131
C          15.962       32.531       15.590
C          15.490       32.001       14.407
C          13.633       31.723       13.123
C          12.264       32.032       12.997
C          10.498       33.019       14.015
C          10.108       33.722       15.131
C          11.765       33.255       13.428
C          14.532       32.685       13.686
C           9.359       30.805       17.228
C           9.850       29.627       16.778
C          10.849       28.910       17.543
C          11.300       29.417       18.754
C          14.441       28.779       15.669
C          15.377       29.736       15.409
C          15.868       30.290       16.660
C          10.994       34.654       15.702
C          12.638       34.184       13.990
C          12.262       34.874       15.120
C          13.307       34.944       17.354
C          14.285       34.261       18.099
C          13.429       35.028       15.952
C          15.337       33.642       17.464
C          15.461       33.718       16.037
C          14.055       33.872       14.114
C          14.520       34.404       15.307
